$ WAVEWATCH III Point output post-processing
$ ------------------------------------------
  19680606 000000  3600.  999
$
  1
 -1
$
  1
$
$  1   0.  0.  33  T
  3   -1.  -1.  33  F
