$ WAVEWATCH III shell input file
$ ------------------------------
   F T
   F T
   T T
   F
   F
   F
   F
$
   19680606 000000
   19680618 000000
$
   1
$
   19680606 000000   1200  19680618 000000
$
N
$
DPT WND ICE HS T01 LM T0M1 FP SPR MSS FAW WCC WCF WVA TAW CHA UST TWO USS TUS FDB
$
   19680606 000000   1200  19680618 000000
     0.0   0.0  'The_point'
     0.0   0.0  'STOPSTRING'
   19680618 000000      0  19680618 000000
   19680618 000000      0  19680618 000000
   19680606 000000      0  19680618 000000
   19680606 000000      0  19680618 000000
$
   'WND' 19680606 000000   xxxx   270.  0.
   'CUR' 19680606 000000    2.    90.  0.
   'STP'
