$ WAVEWATCH III Point output post-processing
$ ------------------------------------------
  20100617 000000  10800.  999
$
  1
 -1
$
  1
$
  1   0.  0.  33  T
