$ WAVEWATCH III shell input file
$ ------------------------------
   F T
   T F
   T F
   F
   F
   F
   F
$
   20100617 150000
   20100618  010000
  1
$
   20100617 150000   1200  20100618  010000
$
N
$
DPT WND CUR ICE HS T0M1 FP SPR MSS FAW WCC WCF WVA WCM FOC TAW CHA UST TWO USS TUS FBB FDB 
$
   20100618 000000     1200  20100618  002000
 -123.2884   38.1113 'warm  ' 
 -123.2296   38.1393 'cold  ' 
     0.0   0.0  'STOPSTRING'
   20100618  010000      0  20100618  010000
   20100618  010000      0  20100618  010000
   20100617 150000      0  20100618  010000
   20100617 150000      0  20100618  010000
$
$   'WND' 20100617 150000   2.   270.  0.
$   'CUR' 20100617 150000    2.    90.  0.
   'STP'
