$ WAVEWATCH III Initial conditions input file
$ GOTEX Spectrum                             
$ -------------------------------------------
 4
 1.0
0.000000000000000000 0.000000000000000000 0.000000000000000000 0.003947164550704553 0.005347939122033306 0.007244140240431033 0.009816572255346039 0.012390212717416254 0.016437889538996466 0.021390663052299481 0.028470972522610632 0.038159003284426625 0.055318255630145703 0.086541970607203686 0.140352178979848335 0.225882620434256415 0.344610343164538258 0.458676366752000519 0.577686977944932845 0.702986879489569283 0.763679840752556460 0.573845124557924580 0.416903117050111904 0.323027917859536717 0.183102648035245397 0.135663462690552794 0.085933297547608978 0.052239408709349226 0.035680219048800754 0.024370069700704010 0.016645085513765468 0.011368817371604013 0.007765055236393709 0.005303637208109902 0.003622455575513897 0.002474185899538210 0.001631499790289328 0.001013033008357183 0.000629013795851738 0.000390568078342723 0.000242512047949235 0.000000000000000000  
0.000000000000000000 0.000000000000000000 0.002956527975092070 0.004005960000847204 0.005426623421536868 0.007354031563195806 0.009816572255346039 0.012390212717416254 0.016437889538996466 0.021390663052299481 0.028470972522610632 0.038159003284426625 0.055318255630145703 0.086541970607203686 0.140352178979848335 0.225882620434256415 0.344610343164538258 0.458676366752000519 0.577686977944932845 0.702986879489569283 0.763679840752556460 0.573845124557924580 0.447636932926152808 0.385877589840040058 0.293244942047588830 0.181273386027397454 0.128352119716004465 0.090109359027821703 0.051368364682386813 0.035085284258170063 0.023963721233638446 0.016367544043192711 0.011179252812781024 0.007635580092057254 0.005215203942392770 0.003562054465127223 0.002432931128425122 0.001661724696690883 0.001134980326952314 0.000775206834883077 0.000519846112274164 0.000322783535820432  
0.000000000000000000 0.002187066456013034 0.002956527975092070 0.003993934184990195 0.005394610699725515 0.007201531307700121 0.009260293818615166 0.011353243150285854 0.014500670122664601 0.019214256080142572 0.025304990118903675 0.031987634215765157 0.039848452265972834 0.053038289966009879 0.073416352169524066 0.102244515476722253 0.143378793738322408 0.215744790406315085 0.287156316030805436 0.335332685922509255 0.357688487809564581 0.336316253137605492 0.289915544583050244 0.233609447659330199 0.150236820577896557 0.100823071898255331 0.079346118072098085 0.052573440181117766 0.037806139949884521 0.025822102281186053 0.017636843303863153 0.012046201286703884 0.008227717564854771 0.005619641803739344 0.003838290966286008 0.002621604375579541 0.001790591063164770 0.001222997789197985 0.000835323945903958 0.000570537494641047 0.000389684785630112 0.000266159951936420  
0.000000000000000000 0.002187066456013034 0.002947492801645783 0.003951409693036980 0.005299920039316274 0.006863026137934001 0.008528451729834581 0.010381035227994932 0.012563450706332724 0.016635817037004844 0.022003549823438735 0.028643869585319941 0.036607357586362410 0.046727155140016657 0.058977272030115248 0.074786328463619670 0.099093619194073557 0.131173734959959654 0.162775409452269620 0.183758190906591207 0.190258003534690967 0.190345095427115307 0.175514235656897138 0.112875146940568397 0.074499094977766758 0.065140067671655741 0.044347789539459004 0.031311043403096706 0.023349410416104738 0.017554862377532083 0.011990207210936464 0.008189472857684902 0.005593520154145820 0.003820449528137299 0.002609418433260911 0.001782267900594843 0.001217312957171533 0.000831441129138401 0.000567885478545455 0.000387873422952978 0.000264922766855391 0.000180945814394776  
0.001615944211633156 0.002173489936935218 0.002910985452953349 0.003911087103133529 0.005026138858249207 0.006314240111209025 0.007798017528263636 0.009408827305704005 0.011226646241249824 0.014057377993867141 0.018214808095405301 0.023288507666172978 0.029918934986308734 0.038360875778213462 0.047462155411992286 0.055642269609115946 0.062634458428989917 0.065946536796510968 0.070165523248797143 0.072146335099635889 0.069146895203915038 0.060597092820078496 0.063974039694813759 0.055972272710568552 0.048940696973445344 0.033319150668263707 0.023524450340418245 0.017542757637944963 0.013189227932030107 0.009008420143453388 0.006152872169560408 0.004202494480951025 0.002870360276587003 0.001960494690654328 0.001339044252888687 0.000914585242052241 0.000624674026400001 0.000426660765248276 0.000291415043540930 0.000199040395834253 0.000135947268515985 0.000010268742815411  
0.001567128151816993 0.002150821745683730 0.002844797403091594 0.003641634287772935 0.004613827793842764 0.005765454084484049 0.007067583326692693 0.008342996945181348 0.009622495242907888 0.010420711088411031 0.011513832724724685 0.013250642403750429 0.015491144261428887 0.017163426974444770 0.018729982557758207 0.018415431871285862 0.015988950240753707 0.007953595517851839 0.000000000000000000 0.000000000000000000 0.000000000000000000 0.000000000000000000 0.000457637673095563 0.000000000000000000 0.000000000000000000 0.000000000000000000 0.000000000000000000 0.000000000000000000 0.000000000000000000 0.000262342451344643 0.000349177802739720 0.000238493137586039 0.000162894021983498 0.000111258808813262 0.000075991263447348 0.000051903055424731 0.000035450485229650 0.000024213158411072 0.000016537912991648 0.000011295617096952 0.000007715058463870 0.000000000000000000  
0.001435753140214140 0.002030024350157681 0.002612058556161433 0.003331858882508890 0.004201516729436321 0.005216668057759073 0.006268217088791396 0.007186949925235827 0.007829234476642402 0.008650512941190592 0.009955403759391754 0.007153720582574038 0.004136035896072258 0.000890104369738431 0.000000000000000000 0.000000000000000000 0.000000000000000000 0.000000000000000000 0.000000000000000000 0.000000000000000000 0.000000000000000000 0.000000000000000000 0.000000000000000000 0.000000000000000000 0.000000000000000000 0.000000000000000000 0.000000000000000000 0.000000000000000000 0.000000000000000000 0.000000000000000000 0.000000000000000000 0.000000000000000000 0.000000000000000000 0.000000000000000000 0.000000000000000000 0.000000000000000000 0.000000000000000000 0.000000000000000000 0.000000000000000000 0.000000000000000000 0.000000000000000000 0.000000000000000000  
0.001131981296164687 0.001851875345989246 0.002362076905305269 0.002978413568547073 0.003697711673445099 0.004492361867465817 0.005603933026841372 0.007038266761975864 0.007885899369061386 0.008989045012266337 0.009957315975083954 0.007153720582574038 0.004136035896072258 0.000890104369738431 0.000000000000000000 0.000000000000000000 0.000000000000000000 0.000000000000000000 0.000000000000000000 0.000000000000000000 0.000000000000000000 0.000000000000000000 0.000000000000000000 0.000000000000000000 0.000000000000000000 0.000000000000000000 0.000000000000000000 0.000000000000000000 0.000000000000000000 0.000000000000000000 0.000000000000000000 0.000000000000000000 0.000000000000000000 0.000000000000000000 0.000000000000000000 0.000000000000000000 0.000000000000000000 0.000000000000000000 0.000000000000000000 0.000000000000000000 0.000000000000000000 0.000000000000000000  
0.001131981296164687 0.001565221349207384 0.001967754641067567 0.002548474767747176 0.003329760909188989 0.004210317826327103 0.005287953990966087 0.005924792914396227 0.006753602563686207 0.007481078869334296 0.007528721422230468 0.006109452399672691 0.001832532333860697 0.000000000000000000 0.000000000000000000 0.000000000000000000 0.000000000000000000 0.000000000000000000 0.000000000000000000 0.000000000000000000 0.000000000000000000 0.000000000000000000 0.000000000000000000 0.000000000000000000 0.000000000000000000 0.000000000000000000 0.000000000000000000 0.000000000000000000 0.000000000000000000 0.000000000000000000 0.000000000000000000 0.000000000000000000 0.000000000000000000 0.000000000000000000 0.000000000000000000 0.000000000000000000 0.000000000000000000 0.000000000000000000 0.000000000000000000 0.000000000000000000 0.000000000000000000 0.000000000000000000  
0.001110746195624969 0.001478403186376834 0.001914706812732665 0.002456889168181500 0.002823590058154815 0.002974113204209235 0.002695767678625592 0.001554351800137810 0.000000000000000000 0.000000000000000000 0.000000000000000000 0.000000000000000000 0.000000000000000000 0.000000000000000000 0.000000000000000000 0.000000000000000000 0.000000000000000000 0.000000000000000000 0.000000000000000000 0.000000000000000000 0.000000000000000000 0.000000000000000000 0.000000000000000000 0.000000000000000000 0.000000000000000000 0.000000000000000000 0.000000000000000000 0.000000000000000000 0.000000000000000000 0.000000000000000000 0.000000000000000000 0.000000000000000000 0.000000000000000000 0.000000000000000000 0.000000000000000000 0.000000000000000000 0.000000000000000000 0.000000000000000000 0.000000000000000000 0.000000000000000000 0.000000000000000000 0.000000000000000000  
0.001022793257449467 0.001403951948430563 0.001811940645960435 0.002121405002370258 0.002547827215213376 0.002681142344213643 0.002040640294774312 0.000255297106408053 0.000000000000000000 0.000000000000000000 0.000000000000000000 0.000000000000000000 0.000000000000000000 0.000000000000000000 0.000000000000000000 0.000000000000000000 0.000000000000000000 0.000000000000000000 0.000000000000000000 0.000000000000000000 0.000000000000000000 0.000000000000000000 0.000000000000000000 0.000000000000000000 0.000000000000000000 0.000000000000000000 0.000000000000000000 0.000000000000000000 0.000000000000000000 0.000000000000000000 0.000000000000000000 0.000000000000000000 0.000000000000000000 0.000000000000000000 0.000000000000000000 0.000000000000000000 0.000000000000000000 0.000000000000000000 0.000000000000000000 0.000000000000000000 0.000000000000000000 0.000000000000000000  
0.000000000000000000 0.001284908122698895 0.001710212711312230 0.002048975672686055 0.002547827215213376 0.002681142344213643 0.002837821711158249 0.001417037538614854 0.000000000000000000 0.000000000000000000 0.000000000000000000 0.000000000000000000 0.000000000000000000 0.000000000000000000 0.000000000000000000 0.000000000000000000 0.000000000000000000 0.000000000000000000 0.000000000000000000 0.000000000000000000 0.000000000000000000 0.000000000000000000 0.000000000000000000 0.000000000000000000 0.000000000000000000 0.000000000000000000 0.000000000000000000 0.000000000000000000 0.000000000000000000 0.000000000000000000 0.000000000000000000 0.000000000000000000 0.000000000000000000 0.000000000000000000 0.000000000000000000 0.000000000000000000 0.000000000000000000 0.000000000000000000 0.000000000000000000 0.000000000000000000 0.000000000000000000 0.000000000000000000  
0.000000000000000000 0.000000000000000000 0.000000000000000000 0.001733624247504736 0.002228561378408229 0.002646278276746090 0.002837821711158249 0.002108160673171211 0.000000000000000000 0.000000000000000000 0.000000000000000000 0.000000000000000000 0.000000000000000000 0.000000000000000000 0.000000000000000000 0.000000000000000000 0.000000000000000000 0.000000000000000000 0.000000000000000000 0.000000000000000000 0.000000000000000000 0.000000000000000000 0.000000000000000000 0.000000000000000000 0.000000000000000000 0.000000000000000000 0.000000000000000000 0.000000000000000000 0.000000000000000000 0.000000000000000000 0.000000000000000000 0.000000000000000000 0.000000000000000000 0.000000000000000000 0.000000000000000000 0.000000000000000000 0.000000000000000000 0.000000000000000000 0.000000000000000000 0.000000000000000000 0.000000000000000000 0.000000000000000000  
0.000000000000000000 0.000000000000000000 0.000000000000000000 0.000000000000000000 0.001988188036623658 0.002326341358830823 0.002411985673413030 0.002108160673171211 0.000276475685467405 0.000000000000000000 0.000000000000000000 0.000000000000000000 0.000000000000000000 0.000000000000000000 0.000000000000000000 0.000000000000000000 0.000000000000000000 0.000000000000000000 0.000000000000000000 0.000000000000000000 0.000000000000000000 0.000000000000000000 0.000000000000000000 0.000000000000000000 0.000000000000000000 0.000000000000000000 0.000000000000000000 0.000000000000000000 0.000000000000000000 0.000000000000000000 0.000000000000000000 0.000000000000000000 0.000000000000000000 0.000000000000000000 0.000000000000000000 0.000000000000000000 0.000000000000000000 0.000000000000000000 0.000000000000000000 0.000000000000000000 0.000000000000000000 0.000000000000000000  
0.000000000000000000 0.000000000000000000 0.000000000000000000 0.000000000000000000 0.001267068011269941 0.001812160535997768 0.001986149635667812 0.001541372906932327 0.000276475685467405 0.000000000000000000 0.000000000000000000 0.000000000000000000 0.000000000000000000 0.000000000000000000 0.000000000000000000 0.000000000000000000 0.000000000000000000 0.000000000000000000 0.000000000000000000 0.000000000000000000 0.000000000000000000 0.000000000000000000 0.000000000000000000 0.000000000000000000 0.000000000000000000 0.000000000000000000 0.000000000000000000 0.000000000000000000 0.000000000000000000 0.000000000000000000 0.000000000000000000 0.000000000000000000 0.000000000000000000 0.000000000000000000 0.000000000000000000 0.000000000000000000 0.000000000000000000 0.000000000000000000 0.000000000000000000 0.000000000000000000 0.000000000000000000 0.000000000000000000  
0.000000000000000000 0.000000000000000000 0.000000000000000000 0.000000000000000000 0.000000000000000000 0.001172286700167237 0.001158056278686947 0.000974585140693438 0.000000000000000000 0.000000000000000000 0.000000000000000000 0.000000000000000000 0.000000000000000000 0.000000000000000000 0.000000000000000000 0.000000000000000000 0.000000000000000000 0.000000000000000000 0.000000000000000000 0.000000000000000000 0.000000000000000000 0.000000000000000000 0.000000000000000000 0.000000000000000000 0.000000000000000000 0.000000000000000000 0.000000000000000000 0.000000000000000000 0.000000000000000000 0.000000000000000000 0.000000000000000000 0.000000000000000000 0.000000000000000000 0.000000000000000000 0.000000000000000000 0.000000000000000000 0.000000000000000000 0.000000000000000000 0.000000000000000000 0.000000000000000000 0.000000000000000000 0.000000000000000000  
0.000000000000000000 0.000000000000000000 0.000000000000000000 0.000000000000000000 0.000000000000000000 0.000000000000000000 0.000732220240941727 0.000407797374454554 0.000000000000000000 0.000000000000000000 0.000000000000000000 0.000000000000000000 0.000000000000000000 0.000000000000000000 0.000000000000000000 0.000000000000000000 0.000000000000000000 0.000000000000000000 0.000000000000000000 0.000000000000000000 0.000000000000000000 0.000000000000000000 0.000000000000000000 0.000000000000000000 0.000000000000000000 0.000000000000000000 0.000000000000000000 0.000000000000000000 0.000000000000000000 0.000000000000000000 0.000000000000000000 0.000000000000000000 0.000000000000000000 0.000000000000000000 0.000000000000000000 0.000000000000000000 0.000000000000000000 0.000000000000000000 0.000000000000000000 0.000000000000000000 0.000000000000000000 0.000000000000000000  
0.000000000000000000 0.000000000000000000 0.000000000000000000 0.000000000000000000 0.000000000000000000 0.000000000000000000 0.000000000000000000 0.000000000000000000 0.000000000000000000 0.000000000000000000 0.000000000000000000 0.000000000000000000 0.000000000000000000 0.000000000000000000 0.000000000000000000 0.000000000000000000 0.000000000000000000 0.000000000000000000 0.000000000000000000 0.000000000000000000 0.000000000000000000 0.000000000000000000 0.000000000000000000 0.000000000000000000 0.000000000000000000 0.000000000000000000 0.000000000000000000 0.000000000000000000 0.000000000000000000 0.000000000000000000 0.000000000000000000 0.000000000000000000 0.000000000000000000 0.000000000000000000 0.000000000000000000 0.000000000000000000 0.000000000000000000 0.000000000000000000 0.000000000000000000 0.000000000000000000 0.000000000000000000 0.000000000000000000  
0.000000000000000000 0.000000000000000000 0.000000000000000000 0.000000000000000000 0.000000000000000000 0.000000000000000000 0.000000000000000000 0.000000000000000000 0.000000000000000000 0.000000000000000000 0.000000000000000000 0.000000000000000000 0.000000000000000000 0.000000000000000000 0.000000000000000000 0.000000000000000000 0.000000000000000000 0.000000000000000000 0.000000000000000000 0.000000000000000000 0.000000000000000000 0.000000000000000000 0.000000000000000000 0.000000000000000000 0.000000000000000000 0.000000000000000000 0.000000000000000000 0.000000000000000000 0.000000000000000000 0.000000000000000000 0.000000000000000000 0.000000000000000000 0.000000000000000000 0.000000000000000000 0.000000000000000000 0.000000000000000000 0.000000000000000000 0.000000000000000000 0.000000000000000000 0.000000000000000000 0.000000000000000000 0.000000000000000000  
0.000000000000000000 0.000000000000000000 0.000000000000000000 0.000000000000000000 0.000000000000000000 0.000000000000000000 0.000000000000000000 0.000000000000000000 0.000000000000000000 0.000000000000000000 0.000000000000000000 0.000000000000000000 0.000000000000000000 0.000000000000000000 0.000000000000000000 0.000000000000000000 0.000000000000000000 0.000000000000000000 0.000000000000000000 0.000000000000000000 0.000000000000000000 0.000000000000000000 0.000000000000000000 0.000000000000000000 0.000000000000000000 0.000000000000000000 0.000000000000000000 0.000000000000000000 0.000000000000000000 0.000000000000000000 0.000000000000000000 0.000000000000000000 0.000000000000000000 0.000000000000000000 0.000000000000000000 0.000000000000000000 0.000000000000000000 0.000000000000000000 0.000000000000000000 0.000000000000000000 0.000000000000000000 0.000000000000000000  
0.000000000000000000 0.000000000000000000 0.000000000000000000 0.000000000000000000 0.000000000000000000 0.000000000000000000 0.000000000000000000 0.000000000000000000 0.001974698059994746 0.002628323117853006 0.000000000000000000 0.000000000000000000 0.000000000000000000 0.000000000000000000 0.000000000000000000 0.000000000000000000 0.000000000000000000 0.000000000000000000 0.000000000000000000 0.000000000000000000 0.000000000000000000 0.000000000000000000 0.000000000000000000 0.000000000000000000 0.000000000000000000 0.000000000000000000 0.000000000000000000 0.000000000000000000 0.000000000000000000 0.000000000000000000 0.000000000000000000 0.000000000000000000 0.000000000000000000 0.000000000000000000 0.000000000000000000 0.000000000000000000 0.000000000000000000 0.000000000000000000 0.000000000000000000 0.000000000000000000 0.000000000000000000 0.000000000000000000  
0.000000000000000000 0.000000000000000000 0.000000000000000000 0.000000000000000000 0.000000000000000000 0.000000000000000000 0.000000000000000000 0.000000000000000000 0.001974698059994746 0.004810498543214956 0.004569716839672169 0.003196390742311803 0.000714630057982446 0.000000000000000000 0.000000000000000000 0.000000000000000000 0.000000000000000000 0.000000000000000000 0.000000000000000000 0.000000000000000000 0.000000000000000000 0.000000000000000000 0.000000000000000000 0.000000000000000000 0.000000000000000000 0.000000000000000000 0.000000000000000000 0.000000000000000000 0.000000000000000000 0.000000000000000000 0.000000000000000000 0.000000000000000000 0.000000000000000000 0.000000000000000000 0.000000000000000000 0.000000000000000000 0.000000000000000000 0.000000000000000000 0.000000000000000000 0.000000000000000000 0.000000000000000000 0.000000000000000000  
0.000000000000000000 0.000000000000000000 0.000000000000000000 0.000000000000000000 0.000000000000000000 0.000000000000000000 0.000000000000000000 0.000000000000000000 0.000000000000000000 0.006073728162262849 0.010005690306649547 0.013317573798150552 0.015543394074655124 0.017244502326567920 0.018844283707889903 0.018465526748345281 0.016114132941200524 0.008062923425833710 0.000000000000000000 0.000000000000000000 0.000000000000000000 0.000000000000000000 0.000000000000000000 0.000000000000000000 0.000000000000000000 0.000000000000000000 0.000000000000000000 0.000000000000000000 0.000000000000000000 0.000000000000000000 0.000000000000000000 0.000000000000000000 0.000000000000000000 0.000000000000000000 0.000000000000000000 0.000000000000000000 0.000000000000000000 0.000000000000000000 0.000000000000000000 0.000000000000000000 0.000000000000000000 0.000000000000000000  
0.000000000000000000 0.000000000000000000 0.000000000000000000 0.000000000000000000 0.000000000000000000 0.000000000000000000 0.000000000000000000 0.000000000000000000 0.000000000000000000 0.000000000000000000 0.011494194527564597 0.022877375344718048 0.031212465716647826 0.042082592917680385 0.056011931173432596 0.066922904281400519 0.074266438152302230 0.072381198089497001 0.070797405667264016 0.047550914379045302 0.036349183272147194 0.029012898261311669 0.024986282355965048 0.022950274903836793 0.019090658681402230 0.017388252801352411 0.015826936809011084 0.010109202794486242 0.006904721531648268 0.004716017711664686 0.003221103552806972 0.002200057067691392 0.001502668579804244 0.001026342858960620 0.000701005982487958 0.000478796518330686 0.000327024464401808 0.000223362109419990 0.000152559326152578 0.000104200072503639 0.000071170051570002 0.000000000000000000  
0.000000000000000000 0.000000000000000000 0.000000000000000000 0.000000000000000000 0.000000000000000000 0.000000000000000000 0.000000000000000000 0.000000000000000000 0.000000000000000000 0.000000000000000000 0.000000000000000000 0.022877375344718048 0.032657693219274607 0.047421279122940939 0.073526285218160334 0.097863485625371394 0.123736689926236876 0.140922027841265896 0.113553261079444037 0.094231346943128416 0.072060864763448515 0.048841734840744430 0.038850637801311129 0.036312458175814182 0.030584719560734188 0.034176908686540379 0.024748920036908251 0.021065652892793777 0.013642091342368703 0.009317731946157159 0.006364136292710311 0.004346790719698312 0.002968916549209970 0.002027809950966443 0.001385021481433264 0.000945988307788582 0.000646122742837636 0.000441310527175490 0.000301421028055112 0.000205874617891614 0.000140615134138115 0.000094727338639672  
0.000000000000000000 0.000000000000000000 0.000000000000000000 0.000000000000000000 0.000000000000000000 0.000000000000000000 0.000000000000000000 0.000000000000000000 0.000000000000000000 0.000000000000000000 0.000000000000000000 0.000000000000000000 0.000000000000000000 0.047421279122940939 0.073526285218160334 0.104054789754038257 0.150580608195136745 0.200422789507727045 0.192556479349899196 0.185548396120406300 0.171545233338545461 0.095913011000150025 0.065008349073030824 0.067538712261817069 0.059419168770321017 0.051154615654052722 0.046975731576274535 0.030804350521016703 0.026584576678635865 0.017909069411802838 0.012232135381328346 0.008354713053294402 0.005706381431114276 0.003897535298896432 0.002662069051906586 0.001818228981563136 0.001241874859342350 0.000848217238810429 0.000579343787180131 0.000395699601926187 0.000270268152398188 0.000184596784644620  
0.000000000000000000 0.000000000000000000 0.000000000000000000 0.000000000000000000 0.000000000000000000 0.000000000000000000 0.000000000000000000 0.000000000000000000 0.000000000000000000 0.000000000000000000 0.000000000000000000 0.000000000000000000 0.000000000000000000 0.000000000000000000 0.000000000000000000 0.000000000000000000 0.150580608195136745 0.200422789507727045 0.192556479349899196 0.151139390496740050 0.113614061492941343 0.095913011000150025 0.065008349073030824 0.067538712261817069 0.059419168770321017 0.051154615654052722 0.046975731576274535 0.026729768629620315 0.018256791632825824 0.012469634337016472 0.008516928035664558 0.005817176446734883 0.003973209785352701 0.002713755744384059 0.001853531687988564 0.001265987082841720 0.000864686211899270 0.000590592317395853 0.000403382499416606 0.000275515674760335 0.000188180913025295 0.000000000000000000  
0.000000000000000000 0.000000000000000000 0.000000000000000000 0.000000000000000000 0.000000000000000000 0.000000000000000000 0.000000000000000000 0.000000000000000000 0.000000000000000000 0.000000000000000000 0.000000000000000000 0.000000000000000000 0.000000000000000000 0.000000000000000000 0.000000000000000000 0.000000000000000000 0.304065340426986241 0.404710968108318747 0.425380404396110301 0.401164898905846279 0.373275055624517016 0.298702605154153589 0.199359773919036476 0.150564621659159709 0.144726663347921392 0.085203408992476887 0.083128927435253713 0.062524698728021452 0.035577322046024630 0.024299789663291185 0.016597083302568930 0.011336031215469528 0.007742661850604136 0.005288342224304444 0.003612008895775182 0.002467050676712779 0.001631499790289328 0.001013033008357183 0.000629013795851738 0.000390568078342723 0.000242512047949235 0.000000000000000000  
0.000000000000000000 0.000000000000000000 0.000000000000000000 0.000000000000000000 0.000000000000000000 0.000000000000000000 0.000000000000000000 0.013694692806979108 0.020379829984234762 0.032883669328957719 0.057127653276385547 0.100335771187278336 0.155623042044666399 0.226677668275493488 0.304767785128863877 0.405645922006517667 0.601652754834637760 0.986771894384266823 1.453993552402048417 1.935265418247126501 1.665336937130683648 1.206006418105445954 0.776955541377579939 0.558486659924811724 0.426823967921758363 0.217728361115582192 0.120209539685860539 0.072765663472749903 0.049699927240454779 0.033945719035895605 0.023185382853558922 0.015835928456771318 0.010816152214173440 0.006815179512388123 0.004231690279717676 0.002627546727258864 0.001631499790289328 0.001013033008357183 0.000629013795851738 0.000390568078342723 0.000242512047949235 0.000000000000000000  
0.000000000000000000 0.000000000000000000 0.000000000000000000 0.000000000000000000 0.000000000000000000 0.000000000000000000 0.010260669154951354 0.015071058909178949 0.024106001592372306 0.039052408019576421 0.064651362663856835 0.115452589964048502 0.175938635007287125 0.274061489488417576 0.389590511289981956 0.578615783044269749 1.049779859097156764 1.940531018717514655 2.842513420806847879 3.204929475288007534 2.858460694315026362 2.216563463320941008 1.605194542498348254 1.034127825573559534 0.743345744359924621 0.561569335765946032 0.289796448644839888 0.159998897321880551 0.089261001493092129 0.060966465059143556 0.041640915961439477 0.028441305895389308 0.019425794614704787 0.013268079103001701 0.009062276554198277 0.005632379762304229 0.003497264693981550 0.002171526220875096 0.001348346934123411 0.000837217362278663 0.000519846112274164 0.000322783535820432  
0.000000000000000000 0.000000000000000000 0.000000000000000000 0.000000000000000000 0.000000000000000000 0.000000000000000000 0.010260669154951354 0.015001849563227362 0.023506015709945403 0.038253826810066220 0.064651362663856835 0.115452589964048502 0.203218741168516126 0.288926682539131618 0.434722601836416200 0.731596268047771225 1.421488193424543800 2.630934051879111557 3.810050009711526631 4.470454018081658987 4.265761131608341472 3.123461699689821902 2.117751000618752766 1.431259681614739376 0.832615452404572909 0.561569335765946032 0.289796448644839888 0.159998897321880551 0.067086294157582105 0.045820841580207702 0.031296251335433151 0.021375760764587911 0.014599932220878282 0.009971950154277905 0.006810976131601602 0.004651988342054231 0.003177370631824484 0.002170186894217939 0.001348346934123411 0.000837217362278663 0.000519846112274164 0.000322783535820432  
0.000000000000000000 0.000000000000000000 0.000000000000000000 0.000000000000000000 0.000000000000000000 0.007481858361388546 0.010232312910218930 0.014932640217275778 0.022946800115738075 0.037455245600556020 0.069258960641045253 0.116074301977110467 0.195724810484739220 0.285583754113548027 0.443161670977004152 0.731596268047771225 1.457949675971085268 3.063949507764818225 4.258566723407826160 5.427973453925350356 5.698207496329353638 3.452772863196042596 2.534262631955348066 1.448927468048425649 0.838733291657629998 0.527300453739351527 0.246962064061733183 0.132318707132077690 0.060743642303090567 0.041488725020893749 0.028337357435211891 0.019354796417739156 0.013219586379167501 0.009029155371332219 0.006167034609201706 0.004212167617786833 0.002876967159201442 0.001965007280378009 0.001342126412388503 0.000837217362278663 0.000519846112274164 0.000322783535820432  
0.000000000000000000 0.000000000000000000 0.000000000000000000 0.000000000000000000 0.000000000000000000 0.007481858361388546 0.010203956665486510 0.014863430871324194 0.022881684031867314 0.036918058053233484 0.069258960641045253 0.116074301977110467 0.192307834994949661 0.288926682539131618 0.443161670977004152 0.731596268047771225 1.421488193424543800 3.188649689760548966 4.258566723407826160 5.608370502204778951 5.698207496329353638 3.452772863196042596 2.534262631955348066 1.448927468048425649 0.838733291657629998 0.426931359287536671 0.224108543654691905 0.116089500687649519 0.053966553673757335 0.036859882298857526 0.025175795573292477 0.017195407126079150 0.011744694437592469 0.008021784330026959 0.005478986633445091 0.003742221592408365 0.002555987700572614 0.001745773991238723 0.001192387126042430 0.000814416451091066 0.000519846112274164 0.000322783535820432  
0.000000000000000000 0.000000000000000000 0.000000000000000000 0.000000000000000000 0.000000000000000000 0.007460553895023089 0.010175600420754086 0.014794221525372606 0.022881684031867314 0.036322866640612753 0.057598671206220232 0.105273536548720723 0.169004831981815512 0.260509722755188022 0.416251036525485341 0.631822591372884212 1.248742280681449213 2.484184505720619551 3.576575634380819935 4.694823292267989778 4.345429150769337667 3.437867471346247150 2.400188050412121576 1.420080370019833893 0.825744493152977488 0.426931359287536671 0.224108543654691905 0.090717807935872544 0.053020141125193591 0.036213469793862155 0.024734287134664388 0.016893850921838940 0.011538727492547590 0.007881106135200867 0.005382901533502402 0.003676594176287412 0.002511163292321160 0.001715158317274203 0.001171476208779593 0.000800134013236522 0.000519846112274164 0.000322783535820432  
0.000000000000000000 0.000000000000000000 0.000000000000000000 0.000000000000000000 0.005458636143348223 0.007439249428657632 0.010147244176021664 0.014725012179421022 0.022973344522081489 0.036322866640612753 0.057436289056515918 0.091099791965836327 0.147638223090030274 0.251844662865293334 0.354659125038584988 0.554030129615420752 0.882574881433875635 1.662075975587009147 3.232495074550294945 3.264785237242174176 4.130684042587054350 2.536210056525457279 1.878900977601176026 1.313949431332927187 0.817918441850971067 0.414276046368285578 0.224108543654691905 0.090717807935872544 0.053020141125193591 0.036213469793862155 0.024734287134664388 0.016893850921838940 0.011538727492547590 0.007881106135200867 0.005382901533502402 0.003676594176287412 0.002511163292321160 0.001715158317274203 0.001171476208779593 0.000800134013236522 0.000519846112274164 0.000322783535820432  
0.000000000000000000 0.000000000000000000 0.000000000000000000 0.000000000000000000 0.000000000000000000 0.007286749173161946 0.009901640989543308 0.013505981998284835 0.019598991210809401 0.030699521671365519 0.048424814148989706 0.076663831375479163 0.121253823106528130 0.196506474932830411 0.313145860067333748 0.467774100184294661 0.705172634847284763 1.174707167188488999 1.943812710179756431 2.587214717249256335 1.905492153663002508 1.411646113900207666 0.987189655396638721 0.620394059468803438 0.333103267110610279 0.188726186219657754 0.087016032929984458 0.045757069195270388 0.031252693938440233 0.021346010476361053 0.014579612373718373 0.009958071425256705 0.006801496772936766 0.004645513812537918 0.003172948441047683 0.002167166478415191 0.001480203864773712 0.001010999156323824 0.000629013795851738 0.000390568078342723 0.000242512047949235 0.000000000000000000  
$
